
#======================================================================
# CRYSTAL DATA
#----------------------------------------------------------------------
data_VESTA_phase_1

_chemical_name_common                  ''
_cell_length_a                         4.005356
_cell_length_b                         4.005356
_cell_length_c                         4.005356
_cell_angle_alpha                      89.861748
_cell_angle_beta                       89.861748
_cell_angle_gamma                      89.861748
_cell_volume                           64.256864
_space_group_name_H-M_alt              'P 1'
_space_group_IT_number                 1

loop_
_space_group_symop_operation_xyz
   'x, y, z'

loop_
   _atom_site_label
   _atom_site_occupancy
   _atom_site_fract_x
   _atom_site_fract_y
   _atom_site_fract_z
   _atom_site_adp_type
   _atom_site_B_iso_or_equiv
   _atom_site_type_symbol
   Ba1        1.0    -0.001741    -0.001741    -0.001741    Biso  1.000000 Ba
   Ti1        1.0     0.510354     0.510354     0.510354    Biso  1.000000 Ti
   O1         1.0     0.486745     0.486745     0.979398    Biso  1.000000 O
   O2         1.0     0.486745     0.979398     0.486745    Biso  1.000000 O
   O3         1.0     0.979398     0.486745     0.486745    Biso  1.000000 O
